48
PBE96/6-31G* final energy structure nwchem_on_git-1406-g65c82df E=-2885.96032673
Si                     1.92284453    -0.13368500    -0.56218556
Si                     0.97230275    -2.80254317     0.73368538
Si                    -1.32660560    -4.15095779    -0.67415625
Si                     1.23883478     2.79600354     0.14801818
Si                    -1.35309998     4.40563497    -0.22334238
O                      3.45076787    -0.06139822    -0.14334377
O                      1.18278661    -1.31570148     0.21286235
O                      2.02923739    -3.75717152     0.00579450
O                      1.85294612    -0.36749017    -2.13725673
O                     -0.83072810    -3.82226916    -2.15395622
O                     -0.50043114    -3.29291054     0.38563137
O                      1.19861011     1.23274865    -0.16476053
O                      1.95691770     3.05571347     1.54232073
O                      1.12432060    -2.84759435     2.31506286
O                     -2.87272737    -3.77581744    -0.51336201
O                     -1.14211082    -5.71087460    -0.39148677
O                     -0.26781798     3.32041771     0.20012423
O                     -2.74179995     4.03149720     0.47489390
O                     -0.91584051     5.86007739     0.28124068
O                     -1.48502957     4.44465729    -1.81076689
O                      2.07168645     3.58592072    -0.98295400
H                      2.22564995     3.80486240    -1.92569536
H                      1.43674775    -0.50473515    -3.01380849
H                     -0.36543562    -3.55803443    -2.97498224
H                      2.02786827     3.10402693     2.51855364
H                      2.72473790    -4.40406259    -0.23547457
H                     -1.72613543     4.24513137    -2.73945275
H                     -3.81195953    -4.05136567    -0.56147868
H                     -0.72144873    -6.59448699    -0.44320009
H                     -3.54173825     4.37131442     0.92768718
H                     -0.41342723     6.69745905     0.19894668
H                      1.62844951    -2.61929160     3.12384668
H                      4.41122934    -0.20356190    -0.27639878
O                     -1.09221675     0.10344842     1.84170824
H                     -1.83313444    -0.56580298     1.73857478
H                     -0.34478164    -0.28077036     1.33759039
O                     -3.35281777    -1.23033728     1.01588326
H                     -3.32400684    -0.43295487     0.41406730
H                     -3.06627742    -1.98518322     0.45341668
O                     -2.57563303     1.11665968    -0.23921448
H                     -1.86893167     0.94891036     0.45389252
H                     -2.93870780     1.98012075     0.06029664
O                      0.90778325     0.30344842     1.84170824
H                      0.16686556    -0.36580298     1.73857478
H                      1.65521836    -0.08077036     1.33759039
O                     -1.57563303     2.11665968    -0.23921448
H                     -0.86893167     1.94891036     0.45389252
H                     -1.93870780     2.98012075     0.06029664
