75			
PBE96/6-31G* after 1000 time steps QMD final energy = -4816.081743 (T = 298.15 K, isokinetic ensemble)
Si	-3.406108875	-4.014022922	0.162867316
Si	1.697563401	3.864013621	-0.14803493
Si	3.584162599	1.737144478	1.125889718
Si	-0.531512096	-4.726613534	0.859766155
Si	2.19056019	-3.644879654	-0.16480094
Si	3.62132744	-0.931093798	-0.275694313
Si	-1.183537529	4.695689843	0.602302622
Si	-3.857022095	3.215249525	0.273943257
O	-4.216355424	-4.885304033	1.244995965
O	-3.98617747	-2.535873424	0.102798507
O	2.384769779	5.234690894	0.257206881
O	2.3806644	2.6439124	0.620276749
O	4.921918526	2.193246307	0.377119598
O	1.844608765	3.684961864	-1.724976513
O	-3.562318578	-4.720119437	-1.263815723
O	3.554138513	-0.341775666	-1.756220888
O	3.289964978	0.211182509	0.786089481
O	-1.864379459	-3.903571414	0.561190098
O	0.157401945	3.898211879	0.271918614
O	-1.040147741	5.452963357	1.992689204
O	3.720717498	1.852084491	2.705149639
O	0.717234167	-3.841222368	0.413677998
O	2.543036933	-2.098190233	-0.096033999
O	5.077529197	-1.529139695	-0.012772818
O	3.229409323	-4.483153692	0.715327003
O	-2.374550255	3.635497292	0.674636236
O	-4.196456668	1.822029712	0.980871114
O	-4.906749052	4.306960036	0.791119337
O	-3.978616546	3.114898475	-1.311622373
O	2.260907262	-4.15005552	-1.677168804
O	-0.470528335	-5.059949308	2.430752875
O	-0.580254337	-6.08846091	0.036014403
O	-1.484255706	5.80489134	-0.527288711
H	-0.235407311	-6.792303649	-0.552285586
H	-1.614271528	6.043547287	-1.468856039
H	1.748899682	3.252340809	-2.599097204
H	3.537991644	0.191152516	-2.578496227
H	-4.762414149	-1.937685706	0.109087811
H	-1.033475311	5.541009912	2.968708267
H	5.822032539	2.484883226	0.121871212
H	-0.157332623	-5.606922457	3.1811788
H	-3.471906058	-4.830210574	-2.233411069
H	-3.935422758	2.804713797	-2.240239079
H	6.053274145	-1.592348129	-0.078626623
H	3.838086976	-5.220359642	0.930848258
H	2.186120369	-4.2117759	-2.652364992
H	-4.876186791	1.290146132	1.445066752
H	-5.3944932	5.153440597	0.713753221
H	3.77874526	2.405679268	3.511731616
H	2.974767378	6.0038826	0.113483709
H	-4.699748653	-5.716070065	1.436228388
O	1.230248248	1.772456659	-3.367708929
H	1.347980214	1.295092906	-2.45131046
H	0.236500596	1.727904995	-3.351899147
O	-0.489645491	-1.531303512	-2.749249912
H	0.31039635	-1.349429109	-3.305584784
H	-0.279360472	-1.296054427	-1.829800192
O	1.893630412	-0.976721814	-4.308901068
H	2.384234249	-1.204236934	-3.467719715
H	1.534155792	-0.052123701	-4.170673431
O	-1.379072185	1.107365243	-3.029696262
H	-1.575901215	1.217102887	-2.026569954
H	-1.213228231	0.126433273	-3.13521105
O	0.821744572	0.600140921	-0.842781064
H	1.253450674	1.057839287	-0.09365216
H	-0.140649694	0.589999716	-0.674760064
O	-2.323398658	-0.861102334	1.812723024
H	-1.408963446	-0.981024576	2.129881236
H	-2.62990183	-1.63046179	1.284511423
O	0.490224943	-0.745081736	2.231665305
H	1.231401331	-1.220827256	2.626260013
H	0.683697385	-0.94205682	1.282504243
O	-1.698878414	0.902393191	-0.089167359
H	-1.707699315	1.686862323	0.530556397
H	-2.087304471	0.226395375	0.538532198
