     123
Cluster + Molecules:      5    2.500000   -1.000000
Si    2.492263    3.730692    6.193323
Si   -2.492263    6.208808   -6.193323
Si    1.543816    4.412343   -4.331957
Si   -1.543815    5.527157    4.331957
Si    3.932125    3.859508   -2.495858
Si   -3.932125    6.079993    2.495858
Si    1.438857    7.541894   -4.342786
Si   -1.438857    2.397606    4.342786
Si    3.836215    8.255351   -2.485565
Si   -3.836215    1.684149    2.485565
Si   -1.440264    3.836051   -4.472732
Si    1.440264    6.103449    4.472732
Si   -3.772676    4.434011   -2.515243
Si    3.772676    5.505489    2.515243
Si   -4.483057    3.754944    0.393049
Si    4.483057    6.184556   -0.393048
Si   -1.530344    8.389733   -4.200139
Si    1.530344    1.549767    4.200139
Si   -3.764433    7.579862   -2.250805
Si    3.764432    2.359638    2.250805
Si   -4.561877    8.327710    0.616044
Si    4.561877    1.611790   -0.616043
O     4.057592    4.031461    6.062842
O    -4.057592    5.908039   -6.062841
O     2.075043    3.635869   -5.636370
O    -2.075043    6.303631    5.636370
O     2.473162    4.089110   -3.084229
O    -2.473161    5.850390    3.084229
O     4.992569    4.021522   -3.679149
O    -4.992569    5.917978    3.679149
O     1.779470    8.327313   -5.677815
O    -1.779469    1.612187    5.677814
O     2.428926    7.973466   -3.168453
O    -2.428926    1.966033    3.168453
O     4.992569    7.705100   -3.443855
O    -4.992569    2.234399    3.443855
O     1.570357    5.981591   -4.640380
O    -1.570357    3.957909    4.640380
O     4.027432    2.389455   -1.894388
O    -4.027432    7.550045    1.894388
O     4.220460    4.918064   -1.326205
O    -4.220460    5.021436    1.326205
O     3.916844    7.504322   -1.085563
O    -3.916844    2.435178    1.085563
O     0.064342    3.945982   -3.955887
O    -0.064342    5.993519    3.955887
O    -0.046246    7.901902   -3.879684
O     0.046247    2.037598    3.879684
O    -1.530143    9.937512   -4.562840
O     1.530143    0.001988    4.562840
O     3.995261    9.810286   -2.197863
O    -3.995261    0.129214    2.197863
O    -4.379304    9.889802    0.903744
O     4.379305    0.049697   -0.903745
O    -2.414851    3.981764   -3.219256
O     2.414851    5.957737    3.219256
O    -3.733870    3.936042   -1.008023
O     3.733870    6.003458    1.008023
O    -6.050196    3.614002    0.125669
O     6.050196    6.325498   -0.125669
O    -5.016697    3.778998   -3.276742
O     5.016697    6.160502    3.276742
O    -2.418872    8.130510   -2.899736
O     2.418872    1.808989    2.899736
O    -3.723817    7.870096   -0.679146
O     3.723816    2.069404    0.679145
O    -6.110517    7.977443    0.360963
O     6.110517    1.962057   -0.360963
O    -5.032782    8.337252   -2.866314
O     5.032782    1.602248    2.866314
O    -3.912822    6.023336   -2.557489
O     3.912822    3.916163    2.557489
O    -1.636710    2.413311   -5.193856
O     1.636711    7.526189    5.193856
O    -1.701052    4.999569   -5.528082
O     1.701052    4.939931    5.528082
O    -2.135364    7.593778   -5.463910
O     2.135363    2.345721    5.463910
O    -2.075043    6.303631   -7.732630
O     2.075043    3.635869    7.732630
H     5.805811    4.228122   -4.185463
H    -5.805811    5.711378    4.185463
H     5.017965    3.844860    6.005717
H    -5.017965    6.094640   -6.005717
H     1.511313   -0.960929    4.381630
H     5.783094    7.569809   -4.007031
H    -5.783094    2.369691    4.007031
H     4.490183   -0.888506   -0.643206
H     2.101503    8.110412    5.828720
H    -2.101502    1.829088   -5.828719
H    -7.008337    3.660786    0.326111
H     7.008337    6.278715   -0.326111
H    -5.795938    3.750685   -3.870359
H     5.795938    6.188814    3.870359
H    -7.059028    8.204766    0.456095
H     7.059028    1.734734   -0.456095
H    -5.717115    8.475653   -3.554015
H     5.717115    1.463847    3.554016
H    -3.942755   -0.798814    2.508357
H     2.330964    3.694033   -6.580574
H    -1.751344    5.830493   -8.527463
H     2.155506    8.418150   -6.578229
H    -1.511313   10.900429   -4.381630
H    -4.490182   10.828006    0.643206
H     3.942755   10.738314   -2.508357
H    -2.330964    6.245467    6.580574
H     1.751344    4.109007    8.527463
H    -2.155506    1.521350    6.578228
O    -1.398920    6.008259   -1.196024
H    -1.023592    5.647908   -0.386238
H    -0.667891    6.422861   -1.665257
O     4.260373    8.979522    1.068697
H     4.980222    9.572195    0.829881
H     3.976589    9.248363    1.948281
O    -0.967395    8.775705    1.714837
H    -1.604408    9.430623    1.411897
H    -0.104504    9.197988    1.655070
O    -0.116248    1.788762   -1.302848
H    -1.002630    1.440450   -1.163265
H     0.445754    1.349767   -0.656386
O    -2.156429    9.004888    5.440265
H    -2.183482    9.966068    5.483590
H    -1.224109    8.765639    5.444367
