42
PBE96/6-31G* minimum energy structure nwchem_on_git-1406-g65c82df E=-2885.94823844
Si                     1.98848729    -0.13605689    -0.47307301
Si                     0.93778217    -2.81023142     0.73126267
Si                    -1.25447531    -4.14230311    -0.85139705
Si                     1.26168419     2.79111663     0.20423497
Si                    -1.29147661     4.41124082    -0.34668730
O                      3.48150203    -0.07127298     0.05788234
O                      1.19009061    -1.32072523     0.23732942
O                      2.04303793    -3.76345203     0.07702157
O                      2.03445287    -0.35946465    -2.05053172
O                     -0.64982164    -3.80562279    -2.28833093
O                     -0.50652991    -3.29371553     0.27218468
O                      1.24051479     1.23004826    -0.12108304
O                      1.87554721     3.03956128     1.64944062
O                      0.97250599    -2.86597132     2.31921138
O                     -2.80724814    -3.76335765    -0.80266855
O                     -1.09549472    -5.70458434    -0.56629469
O                     -0.24330653     3.31991009     0.14848359
O                     -2.72892753     4.03696248     0.24462578
O                     -0.88880787     5.86101455     0.19848851
O                     -1.30573660     4.46092801    -1.93922382
O                      2.17785975     3.58570310    -0.85687945
H                      2.40158959     3.81024417    -1.78420235
H                      1.68374686    -0.48973879    -2.95630994
H                     -0.12448019    -3.53755313    -3.07099038
H                      1.87435315     3.08134617     2.62854810
H                      2.75273486    -4.41095143    -0.11656196
H                     -1.47814464     4.26816161    -2.88448391
H                     -3.74109198    -4.03563983    -0.92182054
H                     -0.67450886    -6.58916042    -0.59271039
H                     -3.55920930     4.37635772     0.63939385
H                     -0.37946950     6.69732903     0.15909353
H                      1.41614743    -2.64448010     3.16450617
H                      4.44878529    -0.21558856    -0.00485910
O                     -1.10951358     0.46560018     1.90498698
H                     -1.44912426    -0.44207815     2.13748517
H                     -0.42495034     0.30457316     1.22341814
O                     -2.05019583    -2.13209538     2.43575582
H                     -2.28217807    -2.39647600     1.51971679
H                     -1.20035673    -2.60651935     2.57211350
O                     -2.85524708     1.11622591    -0.25595182
H                     -2.30616134     0.88571045     0.53926639
H                     -3.00452568     2.07333994    -0.10215058
